<configuration>
    <input>
        <net-file value="mymap.net.xml"/>
        <route-files value="mymap.rou.xml"/>
    </input>
    <time>
        <begin value="0"/>
        <end value="5000"/>
    </time>
</configuration>
