<?xml version="1.0" encoding="UTF-8"?>

<!-- generated on 2025-08-18 10:15:32 by Eclipse SUMO netconvert Version 1.24.0
<netconvertConfiguration xmlns:xsi="http://www.w3.org/2001/XMLSchema-instance" xsi:noNamespaceSchemaLocation="http://sumo.dlr.de/xsd/netconvertConfiguration.xsd">

    <input>
        <osm-files value="mymap.osm.osm"/>
    </input>

    <output>
        <output-file value="mymap.net.xml"/>
    </output>

    <projection>
        <proj.utm value="true"/>
    </projection>

</netconvertConfiguration>
-->

<net version="1.20" junctionCornerDetail="5" limitTurnSpeed="5.50" xmlns:xsi="http://www.w3.org/2001/XMLSchema-instance" xsi:noNamespaceSchemaLocation="http://sumo.dlr.de/xsd/net_file.xsd">

    <location netOffset="-270835.40,-2111251.63" convBoundary="0.00,0.00,11008.97,5419.16" origBoundary="72.821376,19.025358,72.977998,19.274420" projParameter="+proj=utm +zone=43 +ellps=WGS84 +datum=WGS84 +units=m +no_defs"/>

    <type id="highway.footway" priority="1" numLanes="1" speed="2.78" allow="pedestrian" oneway="1" width="2.00"/>
    <type id="highway.living_street" priority="2" numLanes="1" speed="2.78" disallow="tram rail_urban rail rail_electric rail_fast ship container cable_car subway aircraft wheelchair scooter drone" oneway="0"/>
    <type id="highway.path" priority="1" numLanes="1" speed="5.56" allow="pedestrian bicycle" oneway="0" width="2.00"/>
    <type id="highway.primary" priority="12" numLanes="2" speed="27.78" disallow="tram rail_urban rail rail_electric rail_fast ship container cable_car subway aircraft wheelchair scooter drone" oneway="0"/>
    <type id="highway.residential" priority="3" numLanes="1" speed="13.89" disallow="tram rail_urban rail rail_electric rail_fast ship container cable_car subway aircraft wheelchair scooter drone" oneway="0"/>
    <type id="highway.secondary" priority="11" numLanes="1" speed="27.78" disallow="tram rail_urban rail rail_electric rail_fast ship container cable_car subway aircraft wheelchair scooter drone" oneway="0"/>
    <type id="highway.service" priority="1" numLanes="1" speed="5.56" allow="pedestrian delivery bicycle" oneway="0"/>
    <type id="highway.steps" priority="1" numLanes="1" speed="1.39" allow="pedestrian" oneway="1" width="2.00"/>
    <type id="highway.tertiary" priority="10" numLanes="1" speed="22.22" disallow="tram rail_urban rail rail_electric rail_fast ship container cable_car subway aircraft wheelchair scooter drone" oneway="0"/>
    <type id="highway.track" priority="1" numLanes="1" speed="5.56" allow="pedestrian motorcycle moped bicycle" oneway="0"/>
    <type id="highway.unclassified" priority="4" numLanes="1" speed="13.89" disallow="tram rail_urban rail rail_electric rail_fast ship container cable_car subway aircraft wheelchair scooter drone" oneway="0"/>
    <type id="railway.rail" priority="20" numLanes="1" speed="44.44" allow="rail" oneway="1"/>
    <type id="railway.subway" priority="18" numLanes="1" speed="27.78" allow="subway" oneway="1"/>

    <edge id=":10248299565_0" function="internal">
        <lane id=":10248299565_0_0" index="0" disallow="tram rail_urban rail rail_electric rail_fast ship container cable_car subway aircraft wheelchair scooter drone" speed="13.89" length="14.52" shape="8454.18,1501.80 8450.55,1502.25 8446.97,1502.30 8443.37,1502.14 8439.69,1501.97"/>
    </edge>
    <edge id=":10248299565_1" function="internal">
        <lane id=":10248299565_1_0" index="0" disallow="tram rail_urban rail rail_electric rail_fast ship container cable_car subway aircraft wheelchair scooter drone" speed="8.09" length="3.91" shape="8454.18,1501.80 8450.72,1501.82 8450.32,1501.60"/>
    </edge>
    <edge id=":10248299565_2" function="internal">
        <lane id=":10248299565_2_0" index="0" disallow="tram rail_urban rail rail_electric rail_fast ship container cable_car subway aircraft wheelchair scooter drone" speed="3.68" length="1.48" shape="8454.18,1501.80 8452.97,1500.95"/>
    </edge>
    <edge id=":10248299565_9" function="internal">
        <lane id=":10248299565_9_0" index="0" disallow="tram rail_urban rail rail_electric rail_fast ship container cable_car subway aircraft wheelchair scooter drone" speed="8.09" length="10.75" shape="8450.32,1501.60 8447.99,1500.36 8445.98,1497.45 8444.68,1493.07"/>
    </edge>
    <edge id=":10248299565_10" function="internal">
        <lane id=":10248299565_10_0" index="0" disallow="tram rail_urban rail rail_electric rail_fast ship container cable_car subway aircraft wheelchair scooter drone" speed="3.68" length="3.31" shape="8452.97,1500.95 8452.58,1500.12 8453.01,1499.31 8454.27,1498.52"/>
    </edge>
    <edge id=":10248299565_3" function="internal">
        <lane id=":10248299565_3_0" index="0" disallow="tram rail_urban rail rail_electric rail_fast ship container cable_car subway aircraft wheelchair scooter drone" speed="6.79" length="10.02" shape="8447.83,1492.49 8448.72,1495.51 8450.08,1497.52 8451.93,1498.53 8454.27,1498.52"/>
    </edge>
    <edge id=":10248299565_4" function="internal">
        <lane id=":10248299565_4_0" index="0" disallow="tram rail_urban rail rail_electric rail_fast ship container cable_car subway aircraft wheelchair scooter drone" speed="7.68" length="15.06" shape="8447.83,1492.49 8447.99,1496.75 8446.69,1499.74 8443.92,1501.49 8439.69,1501.97"/>
    </edge>
    <edge id=":10248299565_5" function="internal">
        <lane id=":10248299565_5_0" index="0" disallow="tram rail_urban rail rail_electric rail_fast ship container cable_car subway aircraft wheelchair scooter drone" speed="3.65" length="4.67" shape="8447.83,1492.49 8447.26,1493.81 8446.54,1494.35 8445.69,1494.10 8444.68,1493.07"/>
    </edge>
    <edge id=":10248299565_6" function="internal">
        <lane id=":10248299565_6_0" index="0" disallow="tram rail_urban rail rail_electric rail_fast ship container cable_car subway aircraft wheelchair scooter drone" speed="6.10" length="9.06" shape="8439.78,1498.77 8442.33,1498.48 8444.00,1497.43 8444.78,1495.63 8444.68,1493.07"/>
    </edge>
    <edge id=":10248299565_7" function="internal">
        <lane id=":10248299565_7_0" index="0" disallow="tram rail_urban rail rail_electric rail_fast ship container cable_car subway aircraft wheelchair scooter drone" speed="13.89" length="14.52" shape="8439.78,1498.77 8443.46,1498.93 8447.06,1499.06 8450.64,1498.99 8454.27,1498.52"/>
    </edge>
    <edge id=":10248299565_8" function="internal">
        <lane id=":10248299565_8_0" index="0" disallow="tram rail_urban rail rail_electric rail_fast ship container cable_car subway aircraft wheelchair scooter drone" speed="3.65" length="1.44" shape="8439.78,1498.77 8440.96,1499.61"/>
    </edge>
    <edge id=":10248299565_11" function="internal">
        <lane id=":10248299565_11_0" index="0" disallow="tram rail_urban rail rail_electric rail_fast ship container cable_car subway aircraft wheelchair scooter drone" speed="3.65" length="3.23" shape="8440.96,1499.61 8441.34,1500.42 8440.91,1501.20 8439.69,1501.97"/>
    </edge>
    <edge id=":10248299566_0" function="internal">
        <lane id=":10248299566_0_0" index="0" disallow="tram rail_urban rail rail_electric rail_fast ship container cable_car subway aircraft wheelchair scooter drone" speed="6.71" length="9.37" shape="8429.06,1407.61 8428.25,1405.27 8426.84,1403.73 8424.81,1402.97 8422.16,1402.99"/>
    </edge>
    <edge id=":10248299566_1" function="internal">
        <lane id=":10248299566_1_0" index="0" disallow="tram rail_urban rail rail_electric rail_fast ship container cable_car subway aircraft wheelchair scooter drone" speed="13.89" length="14.48" shape="8429.06,1407.61 8426.12,1393.42"/>
    </edge>
    <edge id=":10248299566_2" function="internal">
        <lane id=":10248299566_2_0" index="0" disallow="tram rail_urban rail rail_electric rail_fast ship container cable_car subway aircraft wheelchair scooter drone" speed="3.65" length="1.44" shape="8429.06,1407.61 8429.63,1406.28"/>
    </edge>
    <edge id=":10248299566_9" function="internal">
        <lane id=":10248299566_9_0" index="0" disallow="tram rail_urban rail rail_electric rail_fast ship container cable_car subway aircraft wheelchair scooter drone" speed="3.65" length="3.23" shape="8429.63,1406.28 8430.34,1405.74 8431.20,1405.99 8432.21,1407.03"/>
    </edge>
    <edge id=":10248299566_3" function="internal">
        <lane id=":10248299566_3_0" index="0" disallow="tram rail_urban rail rail_electric rail_fast ship container cable_car subway aircraft wheelchair scooter drone" speed="13.89" length="14.63" shape="8429.24,1392.70 8432.21,1407.03"/>
    </edge>
    <edge id=":10248299566_4" function="internal">
        <lane id=":10248299566_4_0" index="0" disallow="tram rail_urban rail rail_electric rail_fast ship container cable_car subway aircraft wheelchair scooter drone" speed="7.85" length="4.31" shape="8429.24,1392.70 8429.57,1396.72 8429.48,1396.99"/>
    </edge>
    <edge id=":10248299566_5" function="internal">
        <lane id=":10248299566_5_0" index="0" disallow="tram rail_urban rail rail_electric rail_fast ship container cable_car subway aircraft wheelchair scooter drone" speed="3.65" length="1.44" shape="8429.24,1392.70 8428.73,1394.05"/>
    </edge>
    <edge id=":10248299566_10" function="internal">
        <lane id=":10248299566_10_0" index="0" disallow="tram rail_urban rail rail_electric rail_fast ship container cable_car subway aircraft wheelchair scooter drone" speed="7.85" length="10.22" shape="8429.48,1396.99 8428.51,1399.77 8426.04,1401.86 8422.16,1402.99"/>
    </edge>
    <edge id=":10248299566_11" function="internal">
        <lane id=":10248299566_11_0" index="0" disallow="tram rail_urban rail rail_electric rail_fast ship container cable_car subway aircraft wheelchair scooter drone" speed="3.65" length="3.23" shape="8428.73,1394.05 8428.04,1394.62 8427.17,1394.41 8426.12,1393.42"/>
    </edge>
    <edge id=":10248299566_6" function="internal">
        <lane id=":10248299566_6_0" index="0" disallow="tram rail_urban rail rail_electric rail_fast ship container cable_car subway aircraft wheelchair scooter drone" speed="6.33" length="9.04" shape="8421.72,1399.82 8424.13,1399.12 8425.66,1397.82 8426.33,1395.92 8426.12,1393.42"/>
    </edge>
    <edge id=":10248299566_7" function="internal">
        <lane id=":10248299566_7_0" index="0" disallow="tram rail_urban rail rail_electric rail_fast ship container cable_car subway aircraft wheelchair scooter drone" speed="8.17" length="14.38" shape="8421.72,1399.82 8425.73,1399.80 8428.81,1400.99 8430.97,1403.40 8432.21,1407.03"/>
    </edge>
    <edge id=":10248299566_8" function="internal">
        <lane id=":10248299566_8_0" index="0" disallow="tram rail_urban rail rail_electric rail_fast ship container cable_car subway aircraft wheelchair scooter drone" speed="3.65" length="4.67" shape="8421.72,1399.82 8423.02,1400.44 8423.53,1401.18 8423.24,1402.03 8422.16,1402.99"/>
    </edge>
    <edge id=":10248299567_0" function="internal">
        <lane id=":10248299567_0_0" index="0" disallow="tram rail_urban rail rail_electric rail_fast ship container cable_car subway aircraft wheelchair scooter drone" speed="3.65" length="4.67" shape="8411.29,1329.08 8411.80,1327.73 8412.49,1327.16 8413.36,1327.37 8414.41,1328.36"/>
    </edge>
    <edge id=":10264886522_0" function="internal">
        <lane id=":10264886522_0_0" index="0" disallow="tram rail_urban rail rail_electric rail_fast ship container cable_car subway aircraft wheelchair scooter drone" speed="13.89" length="14.42" shape="7829.77,1564.61 7819.04,1574.23"/>
    </edge>
    <edge id=":10264886522_1" function="internal">
        <lane id=":10264886522_1_0" index="0" disallow="tram rail_urban rail rail_electric rail_fast ship container cable_car subway aircraft wheelchair scooter drone" speed="8.25" length="3.95" shape="7829.77,1564.61 7826.62,1566.69 7826.45,1566.72"/>
    </edge>
    <edge id=":10264886522_2" function="internal">
        <lane id=":10264886522_2_0" index="0" disallow="tram rail_urban rail rail_electric rail_fast ship container cable_car subway aircraft wheelchair scooter drone" speed="3.65" length="1.44" shape="7829.77,1564.61 7828.35,1564.81"/>
    </edge>
    <edge id=":10264886522_9" function="internal">
        <lane id=":10264886522_9_0" index="0" disallow="tram rail_urban rail rail_electric rail_fast ship container cable_car subway aircraft wheelchair scooter drone" speed="8.25" length="10.36" shape="7826.45,1566.72 7823.44,1567.30 7820.25,1566.42 7817.04,1564.06"/>
    </edge>
    <edge id=":10264886522_10" function="internal">
        <lane id=":10264886522_10_0" index="0" disallow="tram rail_urban rail rail_electric rail_fast ship container cable_car subway aircraft wheelchair scooter drone" speed="3.65" length="3.23" shape="7828.35,1564.81 7827.51,1564.49 7827.28,1563.62 7827.64,1562.23"/>
    </edge>
    <edge id=":10264886522_3" function="internal">
        <lane id=":10264886522_3_0" index="0" disallow="tram rail_urban rail rail_electric rail_fast ship container cable_car subway aircraft wheelchair scooter drone" speed="6.81" length="9.42" shape="7819.26,1561.76 7821.39,1563.34 7823.50,1563.94 7825.58,1563.57 7827.64,1562.23"/>
    </edge>
    <edge id=":10264886522_4" function="internal">
        <lane id=":10264886522_4_0" index="0" disallow="tram rail_urban rail rail_electric rail_fast ship container cable_car subway aircraft wheelchair scooter drone" speed="7.87" length="14.48" shape="7819.26,1561.76 7821.72,1564.92 7822.51,1568.05 7821.61,1571.16 7819.04,1574.23"/>
    </edge>
    <edge id=":10264886522_5" function="internal">
        <lane id=":10264886522_5_0" index="0" disallow="tram rail_urban rail rail_electric rail_fast ship container cable_car subway aircraft wheelchair scooter drone" speed="2.78" length="4.67" shape="7819.26,1561.76 7819.57,1563.17 7819.30,1564.02 7818.46,1564.32 7817.04,1564.06"/>
    </edge>
    <edge id=":10264886522_6" function="internal">
        <lane id=":10264886522_6_0" index="0" disallow="tram rail_urban rail rail_electric rail_fast ship container cable_car subway aircraft wheelchair scooter drone" speed="6.35" length="9.04" shape="7816.90,1571.85 7818.51,1569.93 7819.07,1567.99 7818.58,1566.04 7817.04,1564.06"/>
    </edge>
    <edge id=":10264886522_7" function="internal">
        <lane id=":10264886522_7_0" index="0" disallow="tram rail_urban rail rail_electric rail_fast ship container cable_car subway aircraft wheelchair scooter drone" speed="13.89" length="14.42" shape="7816.90,1571.85 7827.64,1562.23"/>
    </edge>
    <edge id=":10264886522_8" function="internal">
        <lane id=":10264886522_8_0" index="0" disallow="tram rail_urban rail rail_electric rail_fast ship container cable_car subway aircraft wheelchair scooter drone" speed="3.65" length="1.44" shape="7816.90,1571.85 7818.33,1571.64"/>
    </edge>
    <edge id=":10264886522_11" function="internal">
        <lane id=":10264886522_11_0" index="0" disallow="tram rail_urban rail rail_electric rail_fast ship container cable_car subway aircraft wheelchair scooter drone" speed="3.65" length="3.23" shape="7818.33,1571.64 7819.16,1571.97 7819.40,1572.84 7819.04,1574.23"/>
    </edge>
    <edge id=":10267081563_0" function="internal">
        <lane id=":10267081563_0_0" index="0" disallow="tram rail_urban rail rail_electric rail_fast ship container cable_car subway aircraft wheelchair scooter drone" speed="27.78" length="9.40" shape="10225.84,2285.56 10218.24,2291.09"/>
    </edge>
    <edge id=":10267081563_1" function="internal">
        <lane id=":10267081563_1_0" index="0" disallow="tram rail_urban rail rail_electric rail_fast ship container cable_car subway aircraft wheelchair scooter drone" speed="6.13" length="7.78" shape="10225.84,2285.56 10223.50,2287.02 10221.56,2287.70 10220.02,2287.61 10218.88,2286.75"/>
    </edge>
    <edge id=":10267081563_2" function="internal">
        <lane id=":10267081563_2_0" index="0" disallow="tram rail_urban rail rail_electric rail_fast ship container cable_car subway aircraft wheelchair scooter drone" speed="6.06" length="7.81" shape="10221.43,2284.82 10221.95,2286.17 10221.59,2287.66 10220.36,2289.30 10218.24,2291.09"/>
    </edge>
    <edge id=":10267081563_3" function="internal">
        <lane id=":10267081563_3_0" index="0" disallow="tram rail_urban rail rail_electric rail_fast ship container cable_car subway aircraft wheelchair scooter drone" speed="3.65" length="4.67" shape="10221.43,2284.82 10221.52,2286.26 10221.12,2287.06 10220.24,2287.23 10218.88,2286.75"/>
    </edge>
    <edge id=":10277760458_0" function="internal">
        <lane id=":10277760458_0_0" index="0" disallow="tram rail_urban rail rail_electric rail_fast ship container cable_car subway aircraft wheelchair scooter drone" speed="27.78" length="8.97" shape="9697.82,1388.05 9692.20,1381.07"/>
        <lane id=":10277760458_0_1" index="1" disallow="tram rail_urban rail rail_electric rail_fast ship container cable_car subway aircraft wheelchair scooter drone" speed="27.78" length="8.97" shape="9700.32,1386.04 9694.69,1379.06"/>
    </edge>
    <edge id=":10277760458_2" function="internal">
        <lane id=":10277760458_2_0" index="0" allow="pedestrian delivery bicycle" speed="5.90" length="7.49" shape="9700.32,1386.04 9698.85,1383.90 9698.19,1382.09 9698.33,1380.61 9699.26,1379.46"/>
    </edge>
    <edge id=":10277760458_3" function="internal">
        <lane id=":10277760458_3_0" index="0" allow="pedestrian delivery bicycle" speed="6.20" length="7.83" shape="9701.16,1382.04 9699.80,1382.55 9698.26,1382.23 9696.56,1381.07 9694.69,1379.06"/>
    </edge>
    <edge id=":10277760458_4" function="internal">
        <lane id=":10277760458_4_0" index="0" allow="pedestrian delivery bicycle" speed="3.65" length="4.67" shape="9701.16,1382.04 9699.72,1382.10 9698.92,1381.70 9698.77,1380.81 9699.26,1379.46"/>
    </edge>
    <edge id=":10277760459_0" function="internal">
        <lane id=":10277760459_0_0" index="0" allow="pedestrian delivery bicycle" speed="3.65" length="4.67" shape="9780.60,1319.56 9782.04,1319.50 9782.84,1319.90 9782.99,1320.78 9782.50,1322.14"/>
    </edge>
    <edge id=":10279617327_0" function="internal">
        <lane id=":10279617327_0_0" index="0" disallow="tram rail_urban rail rail_electric rail_fast ship container cable_car subway aircraft wheelchair scooter drone" speed="22.22" length="10.81" shape="7879.30,2393.94 7874.81,2384.11"/>
    </edge>
    <edge id=":10279617327_1" function="internal">
        <lane id=":10279617327_1_0" index="0" disallow="tram rail_urban rail rail_electric rail_fast ship container cable_car subway aircraft wheelchair scooter drone" speed="8.45" length="13.71" shape="7879.30,2393.94 7878.50,2390.83 7879.00,2387.85 7880.80,2385.01 7883.91,2382.31"/>
    </edge>
    <edge id=":10279617327_2" function="internal">
        <lane id=":10279617327_2_0" index="0" disallow="tram rail_urban rail rail_electric rail_fast ship container cable_car subway aircraft wheelchair scooter drone" speed="3.65" length="4.67" shape="7879.30,2393.94 7879.53,2392.52 7880.09,2391.82 7880.99,2391.85 7882.21,2392.61"/>
    </edge>
    <edge id=":10279617327_3" function="internal">
        <lane id=":10279617327_3_0" index="0" disallow="tram rail_urban rail rail_electric rail_fast ship container cable_car subway aircraft wheelchair scooter drone" speed="5.55" length="7.15" shape="7877.72,2382.78 7878.61,2383.85 7879.94,2384.13 7881.70,2383.61 7883.91,2382.31"/>
    </edge>
    <edge id=":10279617327_4" function="internal">
        <lane id=":10279617327_4_0" index="0" disallow="tram rail_urban rail rail_electric rail_fast ship container cable_car subway aircraft wheelchair scooter drone" speed="22.22" length="10.81" shape="7877.72,2382.78 7882.21,2392.61"/>
    </edge>
    <edge id=":10279617327_5" function="internal">
        <lane id=":10279617327_5_0" index="0" disallow="tram rail_urban rail rail_electric rail_fast ship container cable_car subway aircraft wheelchair scooter drone" speed="3.65" length="4.67" shape="7877.72,2382.78 7877.49,2384.20 7876.93,2384.90 7876.04,2384.87 7874.81,2384.11"/>
    </edge>
    <edge id=":10279617327_6" function="internal">
        <lane id=":10279617327_6_0" index="0" disallow="tram rail_urban rail rail_electric rail_fast ship container cable_car subway aircraft wheelchair scooter drone" speed="8.14" length="9.72" shape="7872.39,2393.00 7874.12,2390.57 7875.09,2388.28 7875.33,2386.12 7874.81,2384.11"/>
    </edge>
    <edge id=":10279617327_7" function="internal">
        <lane id=":10279617327_7_0" index="0" disallow="tram rail_urban rail rail_electric rail_fast ship container cable_car subway aircraft wheelchair scooter drone" speed="27.78" length="15.76" shape="7872.39,2393.00 7874.97,2390.12 7877.82,2387.30 7880.84,2384.65 7883.91,2382.31"/>
    </edge>
    <edge id=":10279617327_8" function="internal">
        <lane id=":10279617327_8_0" index="0" disallow="tram rail_urban rail rail_electric rail_fast ship container cable_car subway aircraft wheelchair scooter drone" speed="6.67" length="12.78" shape="7872.39,2393.00 7875.43,2390.09 7878.09,2389.05 7880.35,2389.89 7882.21,2392.61"/>
    </edge>
    <edge id=":10279617336_0" function="internal">
        <lane id=":10279617336_0_0" index="0" disallow="tram rail_urban rail rail_electric rail_fast ship container cable_car subway aircraft wheelchair scooter drone" speed="3.65" length="4.67" shape="7159.24,2465.50 7157.90,2466.02 7157.01,2465.89 7156.59,2465.11 7156.62,2463.67"/>
    </edge>
    <edge id=":10279704565_0" function="internal">
        <lane id=":10279704565_0_0" index="0" disallow="tram rail_urban rail rail_electric rail_fast ship container cable_car subway aircraft wheelchair scooter drone" speed="8.66" length="5.06" shape="9448.05,2118.54 9449.15,2119.56 9450.00,2120.19 9450.96,2120.56 9452.42,2120.76"/>
    </edge>
    <edge id=":10279704565_1" function="internal">
        <lane id=":10279704565_1_0" index="0" disallow="tram rail_urban rail rail_electric rail_fast ship container cable_car subway aircraft wheelchair scooter drone" speed="7.37" length="4.78" shape="9448.05,2118.54 9448.49,2119.41 9448.72,2120.75 9448.83,2122.14 9448.88,2123.19"/>
    </edge>
    <edge id=":10279704566_0" function="internal">
        <lane id=":10279704566_0_0" index="0" disallow="tram rail_urban rail rail_electric rail_fast ship container cable_car subway aircraft wheelchair scooter drone" speed="10.87" length="8.35" shape="9443.54,2111.61 9444.08,2113.97 9444.85,2115.48 9446.06,2116.75 9447.90,2118.40"/>
    </edge>
    <edge id=":10279704566_1" function="internal">
        <lane id=":10279704566_1_0" index="0" disallow="tram rail_urban rail rail_electric rail_fast ship container cable_car subway aircraft wheelchair scooter drone" speed="6.27" length="7.94" shape="9443.54,2111.61 9443.86,2114.55 9443.72,2116.73 9443.13,2118.16 9442.08,2118.83"/>
    </edge>
    <edge id=":10279704566_2" function="internal">
        <lane id=":10279704566_2_0" index="0" disallow="tram rail_urban rail rail_electric rail_fast ship container cable_car subway aircraft wheelchair scooter drone" speed="7.86" length="0.64" shape="9441.37,2115.71 9442.01,2115.68"/>
    </edge>
    <edge id=":10279704566_3" function="internal">
        <lane id=":10279704566_3_0" index="0" disallow="tram rail_urban rail rail_electric rail_fast ship container cable_car subway aircraft wheelchair scooter drone" speed="7.86" length="6.69" shape="9442.01,2115.68 9442.86,2115.63 9444.44,2116.06 9446.12,2116.98 9447.90,2118.40"/>
    </edge>
    <edge id=":10279704572_0" function="internal">
        <lane id=":10279704572_0_0" index="0" disallow="tram rail_urban rail rail_electric rail_fast ship container cable_car subway aircraft wheelchair scooter drone" speed="8.57" length="9.13" shape="9467.79,2107.19 9467.54,2104.88 9466.77,2102.83 9465.46,2101.03 9463.62,2099.50"/>
    </edge>
    <edge id=":10279704572_1" function="internal">
        <lane id=":10279704572_1_0" index="0" disallow="tram rail_urban rail rail_electric rail_fast ship container cable_car subway aircraft wheelchair scooter drone" speed="7.50" length="7.09" shape="9467.79,2107.19 9467.71,2105.75 9467.59,2103.51 9467.63,2101.35 9468.03,2100.18"/>
    </edge>
    <edge id=":10279704572_2" function="internal">
        <lane id=":10279704572_2_0" index="0" disallow="tram rail_urban rail rail_electric rail_fast ship container cable_car subway aircraft wheelchair scooter drone" speed="6.97" length="0.33" shape="9469.70,2102.90 9469.38,2102.84"/>
    </edge>
    <edge id=":10279704572_3" function="internal">
        <lane id=":10279704572_3_0" index="0" disallow="tram rail_urban rail rail_electric rail_fast ship container cable_car subway aircraft wheelchair scooter drone" speed="6.97" length="6.72" shape="9469.38,2102.84 9468.51,2102.67 9466.66,2101.61 9464.80,2100.34 9463.62,2099.50"/>
    </edge>
    <edge id=":10279704576_0" function="internal">
        <lane id=":10279704576_0_0" index="0" disallow="tram rail_urban rail rail_electric rail_fast ship container cable_car subway aircraft wheelchair scooter drone" speed="16.83" length="5.00" shape="9450.94,2097.52 9449.58,2098.09 9448.68,2098.57 9447.88,2099.20 9446.78,2100.19"/>
    </edge>
    <edge id=":10279704576_1" function="internal">
        <lane id=":10279704576_1_0" index="0" disallow="tram rail_urban rail rail_electric rail_fast ship container cable_car subway aircraft wheelchair scooter drone" speed="5.49" length="4.89" shape="9447.46,2095.73 9447.92,2097.00 9447.96,2098.16 9447.58,2099.22 9446.78,2100.19"/>
    </edge>
    <edge id=":10279704577_0" function="internal">
        <lane id=":10279704577_0_0" index="0" disallow="tram rail_urban rail rail_electric rail_fast ship container cable_car subway aircraft wheelchair scooter drone" speed="16.60" length="5.07" shape="9456.05,2096.48 9454.55,2096.51 9453.53,2096.63 9452.53,2096.92 9451.13,2097.45"/>
    </edge>
    <edge id=":10279704577_1" function="internal">
        <lane id=":10279704577_1_0" index="0" disallow="tram rail_urban rail rail_electric rail_fast ship container cable_car subway aircraft wheelchair scooter drone" speed="6.15" length="5.17" shape="9456.05,2096.48 9454.87,2096.31 9453.82,2095.77 9452.89,2094.86 9452.09,2093.59"/>
    </edge>
    <edge id=":10280204424_0" function="internal">
        <lane id=":10280204424_0_0" index="0" disallow="tram rail_urban rail rail_electric rail_fast ship container cable_car subway aircraft wheelchair scooter drone" speed="6.64" length="9.20" shape="7992.40,1716.52 7992.01,1714.09 7990.91,1712.33 7989.10,1711.25 7986.58,1710.85"/>
    </edge>
    <edge id=":10280204424_1" function="internal">
        <lane id=":10280204424_1_0" index="0" disallow="tram rail_urban rail rail_electric rail_fast ship container cable_car subway aircraft wheelchair scooter drone" speed="27.78" length="14.40" shape="7992.40,1716.52 7992.26,1702.13"/>
    </edge>
    <edge id=":10280204424_2" function="internal">
        <lane id=":10280204424_2_0" index="0" disallow="tram rail_urban rail rail_electric rail_fast ship container cable_car subway aircraft wheelchair scooter drone" speed="3.65" length="1.44" shape="7992.40,1716.52 7993.18,1715.31"/>
    </edge>
    <edge id=":10280204424_9" function="internal">
        <lane id=":10280204424_9_0" index="0" disallow="tram rail_urban rail rail_electric rail_fast ship container cable_car subway aircraft wheelchair scooter drone" speed="3.65" length="3.23" shape="7993.18,1715.31 7993.98,1714.90 7994.78,1715.29 7995.60,1716.48"/>
    </edge>
    <edge id=":10280204424_3" function="internal">
        <lane id=":10280204424_3_0" index="0" disallow="tram rail_urban rail rail_electric rail_fast ship container cable_car subway aircraft wheelchair scooter drone" speed="27.78" length="14.38" shape="7995.46,1702.10 7995.60,1716.48"/>
    </edge>
    <edge id=":10280204424_4" function="internal">
        <lane id=":10280204424_4_0" index="0" disallow="tram rail_urban rail rail_electric rail_fast ship container cable_car subway aircraft wheelchair scooter drone" speed="7.95" length="4.07" shape="7995.46,1702.10 7994.93,1706.00 7994.86,1706.12"/>
    </edge>
    <edge id=":10280204424_5" function="internal">
        <lane id=":10280204424_5_0" index="0" disallow="tram rail_urban rail rail_electric rail_fast ship container cable_car subway aircraft wheelchair scooter drone" speed="3.65" length="1.44" shape="7995.46,1702.10 7994.67,1703.31"/>
    </edge>
    <edge id=":10280204424_10" function="internal">
        <lane id=":10280204424_10_0" index="0" disallow="tram rail_urban rail rail_electric rail_fast ship container cable_car subway aircraft wheelchair scooter drone" speed="7.95" length="10.23" shape="7994.86,1706.12 7993.27,1708.76 7990.49,1710.38 7986.58,1710.85"/>
    </edge>
    <edge id=":10280204424_11" function="internal">
        <lane id=":10280204424_11_0" index="0" disallow="tram rail_urban rail rail_electric rail_fast ship container cable_car subway aircraft wheelchair scooter drone" speed="3.65" length="3.23" shape="7994.67,1703.31 7993.87,1703.72 7993.07,1703.32 7992.26,1702.13"/>
    </edge>
    <edge id=":10280204424_6" function="internal">
        <lane id=":10280204424_6_0" index="0" disallow="tram rail_urban rail rail_electric rail_fast ship container cable_car subway aircraft wheelchair scooter drone" speed="6.44" length="9.03" shape="7986.65,1707.65 7989.12,1707.35 7990.88,1706.33 7991.92,1704.59 7992.26,1702.13"/>
    </edge>
    <edge id=":10280204424_7" function="internal">
        <lane id=":10280204424_7_0" index="0" disallow="tram rail_urban rail rail_electric rail_fast ship container cable_car subway aircraft wheelchair scooter drone" speed="8.11" length="14.23" shape="7986.65,1707.65 7990.53,1708.28 7993.31,1709.96 7995.00,1712.69 7995.60,1716.48"/>
    </edge>
    <edge id=":10280204424_8" function="internal">